<?xml version="1.0" encoding="UTF-8"?>

<!-- generated on 03/14/17 09:58:45 by SUMO duarouter Version 0.29.0
<?xml version="1.0" encoding="UTF-8"?>

<configuration xmlns:xsi="http://www.w3.org/2001/XMLSchema-instance" xsi:noNamespaceSchemaLocation="http://sumo.dlr.de/xsd/duarouterConfiguration.xsd">

    <input>
        <net-file value="net.net.xml"/>
        <trip-files value="trips.trips.xml"/>
    </input>

    <output>
        <output-file value="result.rou.xml"/>
    </output>

</configuration>
-->

<routes>
            <route id="0" edges="197705843#2 197705843#3 197705843#4 197705843#5 197705843#6 197705843#7 4302204 197705839 54669755 -153077290#4 -153077290#2 -153077290#0 -112393631#1 -112393631#0 -95684987#1 -95684987#0 -54669743 54669752#0 54669752#1 54669752#3 54669752#4 54669752#5 54669752#6 40547993#0 40547993#1 239063829 239063824 104409117 104409120 103189098#4 103189098#5 103189098#1 103189098#2 129013638#0 129013638#1 129013638#2 129013638#3 129013638#4 103189244#4 103189244#1 103189246#0 103189246#1 103190114#1 50945750 23263907#0 23263907#1 47376147#0 -184422500"/>
	</routes>
