<?xml version="1.0" encoding="UTF-8"?>

<configuration xmlns:xsi="http://www.w3.org/2001/XMLSchema-instance" xsi:noNamespaceSchemaLocation="http://sumo.dlr.de/xsd/sumoConfiguration.xsd">

    <input>
	    <additional-files value="vehicles.xml"/>
        <net-file value="net.net.xml"/>
        <route-files value="result.rou.xml"/>
		<gui-settings-file value="settings.xml"/>
    </input>

</configuration>
