<?xml version="1.0" encoding="UTF-8"?>

<!-- generated on 03/21/17 13:46:56 by SUMO duarouter Version 0.29.0
<?xml version="1.0" encoding="UTF-8"?>

<configuration xmlns:xsi="http://www.w3.org/2001/XMLSchema-instance" xsi:noNamespaceSchemaLocation="http://sumo.dlr.de/xsd/duarouterConfiguration.xsd">

    <input>
        <net-file value="net.net.xml"/>
        <trip-files value="trips.trips.xml"/>
    </input>

    <output>
        <output-file value="result.rou.xml"/>
    </output>

</configuration>
-->

<routes xmlns:xsi="http://www.w3.org/2001/XMLSchema-instance" xsi:noNamespaceSchemaLocation="http://sumo.dlr.de/xsd/routes_file.xsd">
    <route id="0" edges="4520389#2 -4520389#2 -4520389#1 -4520389#0 -4520390 -115566945 122094855 115566941#7 115566941#0 115566941#1 115566941#2 115566941#3 115566944 -394216673#3 -394216673#2 -394216673#1 -394216673#0 -394216677#9 -394216677#8 -394216677#7 -394216677#6 -394216677#5 -394216677#4 -394216677#3 -394216677#2 -394216677#1 -394216677#0 -4345742#1 -4345742#0 -392854418#6 -392854418#5 -392854418#4 -392854418#3 -392854418#2"/>
    
    <route id="1" edges="-4488770#0 4378680#1 4378680#2 4378679#0 4378679#1 4378679#2 4378679#3 4378679#4 4378679#5 4378620 394223707#0 394223707#1 394223705 394479754 97888952 394223724 394223712 394479761#0 394479761#1 394479761#2 97888954 -285356923#3 -285356923#2 -285356923#1 -285356923#0 -394479742#2 -394479742#1 -394479742#0 -394223687 -394223722#3 -394223722#2 -394223722#1 -394223722#0 -174538607 -4324447#19 -4324447#18 -4324447#17 -4324447#16"/>
    
    <route id="2" edges="4328575#2 4378249#1 4378254#0 4378254#1 4378254#2 4378254#3 4378254#4 4384083 4378253#2 4378253#3 394223697#2 394223697#3 394223705 394479754 97888952 394223724 394223712 394479761#0 4390999 97888965#0 97888965#1 97888965#2 97888965#3 97888965#4 122051329#0 122051329#1 4391000#6 4391000#0 4491839#0 4491839#1 4390998#0 4390998#1 4408668 4408669 97890937 2482618#0 2482618#1 2482618#2 2482619#0 2482619#1 97890938#0 97890938#1 97890938#2 97890938#3 97890938#4 97890938#5 97890938#6 97890938#7 191351473#0 191351473#1 98014882 394223689#2 98014886 -393060630 -4329343#5 -4329343#4 -4329343#3 -4329343#2 -4329343#1 -4329343#0 394223718 -4329345#8 -4329345#7 -4329345#6 -4329345#5 -4329345#4 -4329345#3 -4329345#2 4329388#0 4329388#1 4329388#2 -4329390#3 -4329392#1"/>
    
    <route id="3" edges="4435306#4 -4435306#4 -4435306#3 -4435306#2 -4435306#1 -4435306#0 4390092#2 4390092#3 4390092#0 4390098#0 4390098#1 4390098#2 4390098#3 4390099#1 4390099#2 -4401127#1 -4401127#0 -4401126 -4390091#9 -4390091#8 -4390091#7 -4390091#6 -4390091#5 -4390091#4 -4390091#3 -4390091#2 -4390091#1 -4390091#0 4324447#0 4324447#1 4324447#2 4324447#3 4324447#4 4324447#5 4324447#6 4324447#7 4324447#8 4324447#9 4358244#0 4358244#1"/>
    
    <route id="4" edges="-4484814 4484814 -4484817#1 -4484817#0 -4484807#0 -4432087#2 -4432087#1 -4432087#0 -4438455#1 -4438455#0 -4391041#3 -4391041#2 -4391041#1 -4391041#0 4391044 217155548 4345739#0 4345739#1 4345739#2 4345739#3 4448890 4384077 28687886#0 28687886#1 28687886#2 28687886#3 28687886#4 28687886#5 28687886#6 28687886#7 28687886#8 28687886#9 28687886#10 4342874#0 4342874#1 394216670#0 394216670#1 394216670#2 394216670#3 -4520389#6 -4520389#5 -4520389#4 -4520389#3 -4520389#2 -4520389#1 -4520389#0 -4520390 -115566945 122094855 115566941#7 115566941#0 115566941#1 115566941#2 115566941#3 115566944 -394216673#3 -394216673#2 -394216673#1 -394216673#0 -4356504#14 -4356504#13 -4356504#12 -4388081#8 -4388081#7 -4388081#6 -4388081#5 -4388081#4 -4388081#3"/>
    
    <route id="5" edges="-4352662#6 -4352662#5 -4352662#4 -4352662#3 -4352662#2 -4352662#1 -4352662#0 4387568#8 4347748#0 4347748#1 4347748#2 4347751#0 4347751#1 394216668#0 394216668#1 394216668#2 394216668#3 394216668#4 394216668#5 394216668#6 394216668#7 394216668#8 28687885#0 28687885#1 -4448890 -4345739#3 -4345739#2 -4345739#1 -4345739#0 -217155548 -4391044 4391041#0 4391041#1 4391041#2 4391041#3 4438455#0 4438455#1 4432087#0 4432087#1 -4432087#1"/>
    
    <route id="6" edges="4324447#11 4324447#12 4324447#13 4324447#14 4324447#15 4324447#16 4324447#17 4324447#18 4324447#19 174538607 4319278#0 4319278#1 -4333566#4 -4333566#3 -4333566#2 -4333566#1 -4333566#0 -4319276#1 -4319276#0 394223694#0 394223694#1 394223694#2 394223729#0 394223729#1 394479750 394479741 4320289#0 44867561#0 -4384084#6 -4384084#5 -4384084#4 -4384084#3 -4384084#2 -4384084#1 -4384084#0 122052194#0 122052194#1 394223714#2 4940355 -394223713 -2482555#4 -2482555#3 -4345728#1 4345728#1"/>
    
    <route id="7" edges="4358244#1 -4358244#1 -4358244#0 4324447#10 4324447#11 4324447#12 4324447#13 4324447#14 4324447#15 4324447#16 4324447#17 4324447#18 4324447#19 174538607 4319278#0 4319278#1 -4333566#4 -4333566#3 -4333566#2 -4333566#1 -4333566#0 -4319276#1 -4319276#0 394223694#0 394223694#1 394223694#2 394223729#0 394223729#1 394479750 394479741 4320289#0 44867561#0 -4384084#6 -4384084#5 -4384084#4 -4384084#3 -4384084#2 -4384084#1 -4384084#0 122052194#0 122052194#1 394223714#2 4940355 -394223713 -2482555#4 -2482555#3 -2482555#2 -2482555#1 -2482555#0 2482556#1 4402055#0 4402055#1 -242612395#7 -242612395#6 -242612395#5 -242612395#4 4345746#0 4345746#1 394216669#0 394216669#1 394216669#2 394216669#3 394216669#4 392854418#0 392854418#1 392854418#2 392854418#3 392854418#4 392854418#5 392854418#6"/>
    
    <route id="8" edges="-4792403#1 -4792403#0 -4356497#5 -4356497#4 -4356497#3 -4356497#2 -4356497#1 -4356497#0 394216672#0 4356495#0 4356495#1 4356495#2 4356495#3 4356495#4 4356495#5 4356495#6 4356495#7 4356495#8 4356495#9 -392854418#6 -392854418#5 4352631#0 4352631#1 394216675#0 394216675#1 394216675#2 394216675#3 394216675#4 394216675#5 394216675#6 394216675#7 394216675#8 394216675#9 394216675#10 394216675#11 394216675#12 394216675#13 -4347699#5 -4347699#4 -4347699#3 -4347699#2 -4347699#1 -4347699#0 4347748#0 4347748#1 4347748#2 4347751#0 4347751#1 394216668#0 394216668#1 394216668#2 394216668#3 394216668#4 394216668#5 394216668#6 394216668#7 394216668#8 28687885#0 28687885#1 -4448890 -4345739#3 -4345739#2 -4345739#1 -4345739#0 -37620457#8 -37620457#7 -37620457#6 -37620457#5 -37620457#4"/>
    
    <route id="9" edges="4329355#7 -4329355#7 -4329355#6 -4329355#5 -4329355#4 -4329355#3 -4329355#2 -4329355#1 -4329355#0 98014879#2 98014879#3 98014879#4 394223725#0 394223725#1 394223725#2 4329345#0 4329345#1 4329345#2 4329345#3 4329345#4 4329345#5 4329345#6 4329345#7 4329345#8 394223711#0 394223711#1 4329347#0 4329347#1 4329343#0 4329343#1 4329343#2 4329343#3 4329343#4 4329343#5 393060630 98014888 394479746 98014878#0 98014878#1 -394223699#2 -394223699#1 4488177#0 4488177#1 -4430850#13 -4430850#12 -4430850#11 -4430850#10 -4430850#9 -4430850#8 -4430850#7 -4430850#6 -4430850#5 -4430850#4 -4430850#3 -4430850#2 -4430850#1 -4430850#0 -4430849#1 -4430849#0 -4430848#1 -4430848#0 4430847 -4430846#1 -4430846#0 4430845 -4430844#3 -4430844#2 -4430844#1 -4430844#0 394223703#0 394223703#1 394479745 394479753 394223726 4430835#0 4430835#1 4430838 -398857939#3 -398857939#2 -398857939#1 -398857939#0 -398857940#3 -398857940#2 -398857940#1 -398857940#0 -393203279#4 -393203279#3 -393203279#2 -393203279#1 -393203279#0 -3089383#1 -3089383#0 393056528 393057050#0 393057050#1 393057050#2 393057050#3 3089385#0 3089385#1 225658872#0 225658872#1 239567900 394223731 239567901 128632984 239567893 37620457#0 37620457#1 37620457#2 37620457#3 37620457#4 37620457#5 37620457#6 37620457#7 37620457#8 4345739#0 4345739#1 4345739#2 4345739#3 4448890 4384077 28687886#0 28687886#1 28687886#2 28687886#3 28687886#4 28687886#5 28687886#6 28687886#7 28687886#8 -394216674#10 -394216674#9 -394216674#8 -394216674#7 -394216674#6 -394216674#5 -394216674#4 -394216674#3 -394216674#2 -394216674#1 -136712203#2 -136712203#1 -136712203#0 -191354760#0 -4339925#1 -4339925#0 -4342832#2 -4356570#10 -4356570#9 -4356570#8 -4356570#7 -4356570#6 -4356570#5 -4356570#4 -4356570#3 -4356570#2 -4356570#1 -4356570#0 4349791#0 4349791#1 4349791#2"/>
    
    <route id="10" edges="-4337468#4 4337468#4 4337468#5 4337468#6 4337468#7 4357702#0 4357702#1 4357702#2 -4402054 -4402055#1 -4402055#0 2482556#2 2482556#0 2482555#0 2482555#1 2482555#2 2482555#3 2482555#4 394223713 122052191 394479752 394479751 2482541 4940352#0 4940352#1 2482540 394479747 394223697#0 394223697#1 394223697#2 394223697#3 394223705 394479754 97888952 394223724 394223712 394479761#0 4390999 97888965#0 97888965#1 97888965#2 97888965#3 97888965#4 122051329#0 122051329#1 4391000#6 4391000#0 4491839#0 4491839#1 4390998#0 4390998#1 4408668 4408669 97890937 2482618#0 5052193 4342358 4342359 4438572 4342361 4342360 4342362#0 4342362#1 4342362#2 4342363#0 4342363#1 4342363#2 4342363#3 6993839 -6993842#1 -6993842#0 6993842#0"/>
    
    <route id="11" edges="4485017#1 -4485017#1 -4485017#0 -392854417#4 -392854417#3 -392854417#2 -392854417#1 -392854417#0 -4402054 -4402055#1 -4402055#0 2482556#2 2482556#0 2482555#0 2482555#1 2482555#2 2482555#3 2482555#4 394223713 122052191 394479752 394479751 2482541 4940352#0 4940352#1 2482540 394479747 394223697#0 394223697#1 394223697#2 394223697#3 394223705 394479754 97888952 394223724 394223712 394479761#0 4390999 97888965#0 97888965#1 97888965#2 97888965#3 97888965#4 122051329#0 122051329#1 4391000#6 4391000#0 4491839#0 4491839#1 4390998#0 4390998#1 4408668 4408669 97890937 2482618#0 2482618#1 2482618#2 2482619#0 2482619#1 97890938#0 97890938#1 97890938#2 97890938#3 97890938#4 97890938#5 97890938#6 97890938#7 191351473#0 191351473#1 98014882 394223689#2 98014886 -393060630 -4329343#5 -4329343#4 -4329343#3 -4329343#2 -4329343#1 -4329343#0 394223718"/>
    
    <route id="12" edges="-2482555#1 2482555#1 2482555#2 2482555#3 2482555#4 394223713 122052191 394479752 394479751 2482541 4940352#0 4940352#1 2482540 394479747 394223697#0 394223697#1 394223697#2 394223697#3 394223705 394479754 97888952 394223724 394223712 394479761#0 4390999 97888965#0 97888965#1 97888965#2 97888965#3 97888965#4 122051329#0 122051329#1 4391000#6 4391000#0 4491839#0 4491839#1 4390998#0 4390998#1 4408668 4408669 97890937 2482618#0 5052193 4342358 4342359 4438572 4342361 4342360 4342362#0 4342362#1 4342362#2 4342363#0 4342363#1 4342363#2 4342363#3 4342363#4 4342363#5 4342363#6 -4587190#4 -4587190#3 -4587190#2 4587190#2"/>
    
    <route id="13" edges="-4400546#0 -4400540#1 -4400540#0 394223722#3 4366080 -4366079 394223720 394223730 4358238#0 4358240#0 4358240#1 4358240#2 4386464 4366085#0 4366085#1 4366085#2 4378629#0 4378629#1 4378631 4378260#0 4378260#1 4378260#2 -4384082#2 -4384082#1 -4384082#0 4384083 4378253#2 4378253#3 -394223697#1 -394223697#0 -394479747 -2482540 122052192#0 122052192#1 394223714#0 4940353#0 4940353#1 122052194#0 122052194#1 394223714#2 4940355 -394223713 -2482555#4 -2482555#3 -2482555#2 -2482555#1 -2482555#0 2482556#1 4402055#0 4402055#1 -242612395#7 -242612395#6 -242612395#5 -242612395#4 4345746#0 4345746#1 394216669#0 394216669#1 394216669#2 394216669#3 394216669#4 392854418#0 392854418#1 392854418#2 392854418#3 392854418#4 392854418#5 392854418#6 4345742#0 4345742#1 394216677#0 394216677#1 394216677#2 394216677#3 394216677#4 394216677#5 394216677#6"/>
    
    <route id="14" edges="-4587190#1 4587190#1 4587190#2 4587190#3 4587190#4 -4342363#6 -4342363#5 -4342363#4 -4342363#3 -4342363#2 -4342363#1 -4342363#0 -4342362#2 -4342362#1 -4342362#0 -4342360 -4342361 -4438572 -4342359 -4342358 97890942 2482618#2 2482618#3 2482618#4 97890944 -4408669 -4408668 -4390998#1 -4390998#0 122051330#0 122051330#1 4391000#2 4491841#0 4491841#1 -174538609#1 -174538609#0 -4402247#3 -4402247#2 -4402247#1 -4402247#0 -4402248 -4405760#1 -4405760#0 -18140190#5 -18140190#4 -18140190#3 -18140190#2 -18140190#1 -18140190#0 -18140187 -4391016#5 -4391016#4 -4391016#3 -4391016#2 -4391016#1 -4391016#0 393203279#0 393203279#1 393203279#2 393203279#3 393203279#4 398857940#0 398857940#1 398857940#2 398857940#3 4430858#0 4430858#1 398857939#1 398857939#2 398857939#3 393056533 394223721 4430842#0 4430842#1 4430844#0 4430844#1 4430844#2 4430844#3 394223696 4430846#0 -4430846#0"/>
    
    <route id="15" edges="394223703#1 394479745 394479753 394223726 4430835#0 4430835#1 4430838 -398857939#3 -398857939#2 -398857939#1 -398857939#0 -398857940#3 -398857940#2 -398857940#1 -398857940#0 -393203279#4 -393203279#3 -393203279#2 -393203279#1 -393203279#0 4391016#0 4391016#1 4391016#2 4391016#3 4391016#4 4391016#5 18140187 18140190#0 18140190#1 18140190#2 18140190#3 18140190#4 18140190#5 4405760#0 4405760#1 4402248 4402247#0 4402247#1 4402247#2 4402247#3 174538609#0 174538609#1 122051328#0 122051328#1 4391000#4 4391000#5 4391000#6 4391000#0 4491839#0 4491839#1 4390998#0"/>
    
    <route id="16" edges="-4623842#2 -4623842#1 -4352670#1 -4352670#0 -4623840#3 -4623840#2 -4623840#1 -4623840#0 -4345742#1 -4345742#0 -392854418#6 -392854418#5 -392854418#4 -392854418#3 -392854418#2 -392854418#1 -392854418#0 -394216669#4 -394216669#3 -394216669#2 -394216669#1 -394216669#0 -4345746#1 -4345746#0 242612395#4 242612395#5 242612395#6 242612395#7 -4402055#1 -4402055#0 2482556#2 2482556#0 2482555#0 2482555#1 2482555#2 2482555#3 2482555#4 394223713 122052191 394479752 394479751 2482541 4940352#0 4940352#1 2482540 394479747 394223697#0 394223697#1 394223697#2 4378253#0 4378253#1 -4384083 4384082#0 4384082#1 4384082#2 -4378260#2 -4378260#1 -4378260#0 -4378631 -4378629#1 -4378629#0 -4366085#2 -4366085#1 -4366085#0 -4386464 394223710#0 394223710#1 4358243 -4347941#4 -4347941#3 -4347941#2 4334906#0 4334906#1"/>
    
    <route id="17" edges="4851035#1 4851035#2 -4344833#3 -4344833#2 -4344833#1 -4344833#0 -4344835#5 -4344835#4 -4344835#3 -4344835#2 -4344835#1 -4344835#0 4342874#0 4342874#1 394216670#0 394216670#1 394216670#2 394216670#3 -4520389#6 -4520389#5 -4520389#4 -4520389#3 -4520389#2 -4520389#1 -4520389#0 -4520390 -115566945 122094855 115566941#7 115566941#0 115566941#1 115566941#2 115566941#3 115566944 -394216673#3 -394216673#2 -394216673#1 -394216673#0 -394216677#9 -394216677#8 -394216677#7 -394216677#6 -394216677#5 -394216677#4 -394216677#3 -394216677#2 -394216677#1 -394216677#0 -4345742#1 -4345742#0 -4356495#9 -4356495#8 -4356495#7 -4356495#6 -4356495#5 -4356495#4 4356495#4"/>
    
    <route id="18" edges="4402247#1 -4402247#1 -4402247#0 -4402248 -4405760#1 -4405760#0 -18140190#5 -18140190#4 -18140190#3 -18140190#2 -18140190#1 -18140190#0 -18140187 -4391016#5 -4391016#4 -4391016#3 -4391016#2 -4391016#1 -4391016#0 393203279#0 393203279#1 393203279#2 393203279#3 393203279#4 398857940#0 398857940#1 398857940#2 398857940#3 4430858#0 4430858#1 398857939#1 398857939#2 398857939#3 393056533 394223721 4430842#0 4430842#1 4430844#0 4430844#1 4430844#2 4430844#3 394223696 4430846#0 4430846#1 394223702 4430848#0 4430848#1 4430849#0 4430849#1 4639988#0 4639988#1 4639988#2 4639988#3 4639988#4 -4649415#1 -4649415#0 -4649414#0"/>
    
    <route id="19" edges="4329388#0 -4329388#0 4329345#2 4329345#3 4329345#4 4329345#5 4329345#6 4329345#7 4329345#8 394223711#0 394223711#1 4329347#0 4329347#1 4329343#0 4329343#1 4329343#2 4329343#3 4329343#4 4329343#5 393060630 98014888 394479746 394479756 394223689#0 98014880 -191351473#1 -191351473#0 -97890938#7 -97890938#6 -97890938#5 -97890938#4 -97890938#3 -97890938#2 -97890938#1 -97890938#0 97890947#0 97890947#1 2482618#4 97890944 -4408669 -4408668 -4390998#1 -4390998#0 122051330#0 122051330#1 4391000#2 4391000#3 4391000#4 4491840#0 4491840#1 -97888965#4 -97888965#3 -97888965#2 -97888965#1 -97888965#0 97888960 394479761#2 394479761#3 394479761#4 118439164 97888948 -394479754 -394223705 -394223697#3 -394223697#2 -394223697#1 -394223697#0 -394479747 -2482540 122052192#0 122052192#1 394223714#0 4940353#0 4940353#1 122052194#0 122052194#1 394223714#2 4940355 -394223713 -2482555#4 -2482555#3 -2482555#2 -2482555#1 -2482555#0 2482556#1 4402055#0 4402055#1 -242612395#7 -242612395#6 -242612395#5 -242612395#4 4345746#0 4345746#1 394216669#0 394216669#1 394216669#2 394216669#3 394216669#4 392854418#0 392854418#1 392854418#2 392854418#3"/>
    
    <route id="20" edges="-4356571#4 -4356571#3 -4356571#2 -4356571#1 -4356571#0 4356570#0 4356570#1 4356570#2 4356570#3 4356570#4 4356570#5 4356570#6 4356570#7 4356570#8 4356570#9 4356570#10 4342832#2 4339925#0 4339925#1 191354760#0 136712203#0 136712203#1 136712203#2 394216674#1 394216674#2 394216674#3 394216674#4 394216674#5 394216674#6 394216674#7 394216674#8 394216674#9 394216674#10 -28687886#8 -28687886#7 -28687886#6 -28687886#5 -28687886#4 -28687886#3 -28687886#2 -28687886#1 -28687886#0 -4384077 -4448890 -4345739#3 -4345739#2 -4345739#1 -4345739#0 -217155548 -4391044 4391041#0 4391041#1 4391041#2 4391041#3 4438455#0 4438455#1 4432087#0 4432087#1 4432087#2 -4432087#2"/>
    
    <route id="21" edges="-4356504#8 -4356504#7 -4356504#6 -4356504#5 -4356504#4 -4356504#3 -4356504#2 -4356504#1 -4356504#0 394216676 4356496 4356497#0 4356497#1"/>
    
    <route id="22" edges="-4451708#1 4451708#1 4451708#2 -4435305#5 -4435305#4 -4435305#3 -4435305#2 -4435305#1 -4435305#0 4390099#0 4390099#1 4390099#2 -4401127#1 -4401127#0 -4401126 -4390091#9 -4390091#8 -4390091#7 -4390091#6 -4390091#5 -4390091#4 -4390091#3 -4390091#2 -4390091#1 -4390091#0 -4324448#5 -4324448#4 -4324448#3 -4324448#2 -4324448#1 -4324448#0 -18140190#5 -18140190#4 -18140190#3 -18140190#2 -18140190#1 -18140190#0 -18140187 -4391016#5 -4391016#4 -4391016#3 -4391016#2 -4391016#1 -4391016#0 393203279#0 393203279#1 393203279#2 393203279#3 393203279#4 3088995#0 3088995#1 398857938 -18782872#1 -18782872#0 -18782871 18782871"/>
    
    <route id="23" edges="4516950#1 -4516950#1 -4516950#0 4538814#0 4538814#1 4538814#2 4538818#0 4538818#1 4538818#2 4538818#3 4538818#4 4538818#5 4538818#6 3089385#1 225658872#0 225658872#1 239567900 394223731 239567901 128632984 239567893 37620457#0 37620457#1 37620457#2 37620457#3 37620457#4 37620457#5 37620457#6 37620457#7 37620457#8 4345739#0 4345739#1 4345739#2 4345739#3 4448890 -28687885#1 -28687885#0 -394216668#8 -394216668#7 -394216668#6 -394216668#5 -394216668#4 -394216668#3 -394216668#2 -394216668#1 -394216668#0 -4347751#1 -4347751#0 -4347748#2 -4347748#1 -4347748#0 4347699#0 4347699#1 4347699#2 4347699#3 4347699#4 4347699#5 -394216675#13 -394216675#12 -394216675#11 -394216675#10 -394216675#9 -394216675#8 -394216675#7 -394216675#6 -394216675#5 -394216675#4 -394216675#3 -394216675#2 394216675#2"/>
    
    <route id="24" edges="-98014879#1 98014879#1 98014879#2 98014879#3 98014879#4 394223725#0 394223725#1 394223725#2 4329345#0 4329345#1 4329345#2 4329345#3 4329345#4 4329345#5 4329345#6 4329345#7 4329345#8 394223711#0 394223711#1 4329347#0 4329347#1 4329343#0 4329343#1 4329343#2 4329343#3 4329343#4 4329343#5 393060630 98014888 394479746 98014878#0 98014878#1 -394223699#2 -394223699#1 4488177#0 4488177#1 -4430850#13 -4430850#12 -4430850#11 -4430850#10 -4430850#9 -4430850#8 -4430850#7 -4430850#6 -4430850#5 -4430850#4 -4430850#3 -4430850#2 -4430850#1 -4430850#0 -4430849#1 -4430849#0 -4430848#1 -4430848#0 4430847 -4430846#1 -4430846#0 4430845 394223696"/>
    
    <route id="25" edges="4329423#3 394223711#1 4329347#0 4329347#1 4329343#0 4329343#1 4329343#2 4329343#3 4329343#4 4329343#5 393060630 98014888 394479746 394479756 394223689#0 98014880 -191351473#1 -191351473#0 -97890938#7 -97890938#6 -97890938#5 -97890938#4 -97890938#3 -97890938#2 -97890938#1 -97890938#0 97890947#0 97890947#1 2482618#4 97890944 -4408669 -4408668 -4390998#1 -4390998#0 122051330#0 122051330#1 4391000#2 4491841#0 4491841#1 -174538609#1 -174538609#0 -4402247#3 -4402247#2 -4402247#1 -4402247#0 -4402248 -4405760#1 -4405760#0 -18140190#5 -18140190#4"/>
    
    <route id="26" edges="4384077 -4384077 -28687885#1 -28687885#0 -4825509 38252673#0 38252673#1 4320288#0 4320288#1 4320288#2 4320288#3 174538606 373205900#0 373205900#1 373205900#2 373205900#3 373205900#4"/>
    
    <route id="27" edges="-4451685#1 4451685#1 4451685#2 4451685#3 4451685#4 -174538605#2 -174538605#1 -174538605#0 -4340030 174538609#0 174538609#1 122051328#0 122051328#1 4391000#4 4491840#0 4491840#1 -97888965#4 -97888965#3 -97888965#2 -97888965#1 -97888965#0 97888960 394479761#2 394479761#3 394479761#4 118439164 97888948 -394479754 -394223705 -394223697#3 -394223697#2 -394223697#1 -394223697#0 -394479747 -2482540 122052192#0 122052192#1 394223714#0 4940353#0 4940353#1 122052194#0 122052194#1 394223714#2 4940355 -394223713 -2482555#4 -2482555#3 -2482555#2 -2482555#1 -2482555#0 2482556#1 4402055#0 4402055#1 -242612395#7 -242612395#6 -242612395#5 -242612395#4 4345746#0 4345746#1 394216669#0 394216669#1 394216669#2 394216669#3 394216669#4 392854418#0 392854418#1 392854418#2 392854418#3"/>
    
    <route id="28" edges="4358241 -4358239#2 -4358239#1 -4358239#0 394223730 4358238#0 4358238#1 4366079 394223732 -394223687 -394223722#3 -394223722#2 -394223722#1 -394223722#0 -174538607 -4324447#19 -4324447#18 -4324447#17 -4324447#16 -4324447#15 -4324447#14 -4324447#13 -4324447#12 -4324447#11 -4324447#10 -4324447#9 -4324447#8 -4324447#7 -4324447#6 -4324447#5 -4324447#4 -4324447#3 -4324447#2 -4324447#1 -4324447#0 -4324448#5 -4324448#4 -4324448#3 -4324448#2 -4324448#1 -4324448#0 4405760#0 4405760#1 4402248 4402247#0 4402247#1 4402247#2 4402247#3 174538609#0 174538609#1 122051328#0 122051328#1 4391000#4 4391000#5 4391000#6 4391000#0 4491839#0 4491839#1 4390998#0 4390998#1 4408668 4408669 97890937 2482618#0 2482618#1 2482618#2 2482619#0 2482619#1 97890938#0 97890938#1 97890938#2 97890938#3 97890938#4 97890938#5 97890938#6 97890938#7 191351473#0 191351473#1 98014882 394223689#2 98014886 -393060630 -4329343#5 -4329343#4 -4329343#3 -4329437#8 -4329437#7 -4329443"/>
    
    <route id="29" edges="4324448#1 4324448#2 4324448#3 4324448#4 4324448#5 4324447#0 4324447#1 4324447#2 4324447#3 4324447#4 4324447#5 4324447#6 4324447#7 4324447#8 4324447#9 4324447#10 4324447#11 4324447#12 4324447#13 4324447#14 4324447#15 4324447#16 4324447#17 4324447#18 4324447#19 -373205900#7 -373205900#6 -373205900#5 -373205900#4 -373205900#3 -373205900#2 -373205900#1 -373205900#0 -174538606 -4320288#3 -4320288#2 -4320288#1 -4320288#0 38216037#0 38216037#1 38216038 4825509 28687885#0 28687885#1 4384077 28687886#0 28687886#1 28687886#2 28687886#3 28687886#4 28687886#5 28687886#6 28687886#7 28687886#8 28687886#9 28687886#10 4344835#0 4344835#1 4344835#2 4344835#3 4344835#4 4344835#5 4344833#0 4344833#1 4344833#2 4344833#3 4442932 197903819#0"/>
    
    <route id="30" edges="394223715 394479749 394479760 394223731 239567901 128632984 239567893 37620457#0 37620457#1 37620457#2 37620457#3 37620457#4 37620457#5 37620457#6 37620457#7 37620457#8 4345739#0 4345739#1 4345739#2 4345739#3 4448890 -28687885#1 -28687885#0 -394216668#8 -394216668#7 -394216668#6 -394216668#5 -394216668#4 -394216668#3 -394216668#2 -394216668#1 -394216668#0 -4347751#1 -4347751#0 -4347748#2 -4347748#1 -4347748#0 4347699#0 4347699#1 4347699#2 4347699#3 4347699#4 4347699#5 -394216675#13 -394216675#12 -394216675#11 -394216675#10 -394216675#9 -394216675#8 -394216675#7 -394216675#6 -394216675#5 -394216675#4 -394216675#3 -394216675#2 -394216675#1 -394216675#0 -4352668#8 -4352668#7 -4352668#6 -4747366 4747366"/>
    
    <route id="31" edges="4356495#8 4356495#9 -392854418#6 -392854418#5 4352631#0 4352631#1 394216675#0 394216675#1 394216675#2 394216675#3 394216675#4 394216675#5 394216675#6 394216675#7 394216675#8 394216675#9 394216675#10 394216675#11 394216675#12 394216675#13 -4347699#5 -4347699#4 -4347699#3 -4347699#2 -4347699#1 -4347699#0 -4387568#8 -4387568#7 -4387568#6 -4345735#2 -4345735#1 -4345735#0 4485017#7 4345733 4342718#10 4342717#0 4342717#1 4371230 4371231 4342204#0 -4342199#1 -4342199#0"/>
    
    <route id="32" edges="394216677#9 394216673#0 394216673#1 394216673#2 394216673#3 122094856 115566941#5 115566942 115566945 4520390 4520389#0 4520389#1 4520389#2 4520389#3 4520389#4 4520389#5 4520389#6 -394216670#3 -394216670#2 -394216670#1 -394216670#0 -4342874#1 -4342874#0 4344835#0 4344835#1 4344835#2 4344835#3 4344835#4 4344835#5 4344833#0 4344833#1 4344833#2 4344833#3 4442932 197903819#0 197903819#1 -3089385#1 -3089385#0 37618947#0 37618947#1 37618947#2 37618947#3 4344831#0 4344831#1 4344831#2 4442913 3089383#0 3089383#1 4391016#0 4391016#1 4391016#2 4391016#3 4391016#4 4391016#5 18140187 18140190#0 18140190#1 18140190#2 18140190#3 18140190#4 18140190#5 4405760#0 4405760#1 4402248 4402247#0 4402247#1 4402247#2 4402247#3 4340030 174538605#0 174538605#1 174538605#2 174538605#3 174538605#4 174538605#5 174538605#6 174538605#7 -174538605#7"/>
    
    <route id="33" edges="394479761#2 394479761#3 394479761#4 118439164 97888948 -394479754 -394223705 -394223697#3 -394223697#2 -394223697#1 -394223697#0 -394479747 -2482540 122052192#0 122052192#1 394223714#0 4940353#0 4940353#1 4384084#0 4384084#1 4384084#2 4384084#3 4384084#4 4384084#5 4384084#6 44867561#1 4320289#2 394223733 394479750 87538775#0 87538775#1 394479739#0 4320682#0 4320682#1 4320682#2 4320682#3 4320682#4 4320682#5 4404938"/>
    
    <route id="34" edges="120437583#3 -120437583#3 -120437583#2 -120437583#1 -120437583#0 4347281#1 4347281#2 -4350182#2 -4350182#1 -4350182#0 122094935 393234280#3 102283553 393234278 102283556#0 102283556#1 -4828916#3 -4828916#2 -4828916#1 -4828916#0 -4520389#6 -4520389#5 -4520389#4 -4615383#1 -4615383#0 -4342847#1 -4342847#0 4342832#0 4342832#1 4342832#2 394216671#0 394216671#1 -4347678#1 -4347678#0 -394216678#11 -394216678#10 -394216678#9 -394216678#8 -394216678#7 -394216678#6 -394216678#5 -394216678#4 -394216678#3 -394216678#2 -394216678#1 -394216678#0 -394216675#13 -394216675#12 -394216675#11 -394216675#10 -394216675#9 -394216675#8 -394216675#7 -394216675#6 -394216675#5 -394216675#4 -394216675#3 4352657#0 4352657#1 4352657#2 4352657#3"/>
    
    <route id="35" edges="-4329394#2 4329394#2 4329345#3 4329345#4 4329345#5 4329345#6 4329345#7 4329345#8 394223711#0 394223711#1 4329347#0 4329347#1 4329343#0 4329343#1 4329343#2 4329343#3 4329343#4 4329343#5 393060630 98014888 394479746 394479756 394223689#0 98014880 -191351473#1 -191351473#0 -97890938#7 -97890938#6 -97890938#5 -97890938#4 -97890938#3 -97890938#2 -97890938#1 -97890938#0 97890947#0 97890947#1 2482618#4 2482618#5 2482618#0 5052193 4342358 4342359 4438572 4342361 4342360 4342362#0 4342362#1 4342362#2 4342363#0 4342363#1 4342363#2 6274355#0 6274355#1 6994555#0 -6994555#0"/>
    
    <route id="36" edges="4796425#2 -4796425#2 -4796425#1 -4796425#0 -4356504#4 -4356504#3 -4356504#2 -4356504#1 4796410#0 4796412 4796413#1 4796415"/>
    
    <route id="37" edges="4400540#6 -4400540#6 -4400540#5 -4400540#4 -4400540#3 -4400540#2 -4400540#1 -4400540#0 394223722#3 4366080 -4366079 394223720 394223730 4358238#0 4358240#0 4358240#1 4358240#2 4386464 4366085#0 4366085#1 4366085#2 4378629#0 4378629#1 4378631 4378260#0 4378260#1 4378260#2 -4384082#2 -4384082#1 -4384082#0 4384083 4378253#2 4378253#3 -394223697#1 -394223697#0 -394479747 -2482540 122052192#0 122052192#1 394223714#0 4940353#0 4940353#1 122052194#0 122052194#1 394223714#2 4940355 -394223713 -2482555#4 -2482555#3 -2482555#2 -2482555#1 -2482555#0 2482556#1 4402055#0 4402055#1 -242612395#7 -242612395#6 -242612395#5 -242612395#4 4345746#0 4345746#1 -4356497#15 -4356497#14 -4356497#13 -4356497#12 -4356497#11 4792390#0 4792390#1 4792390#2 4792390#3 4792392 -4792392"/>
    
    <route id="38" edges="-4796416#2 -4796416#1 -4796416#0 -4356504#2 -4356504#1 -4356504#0 394216676 4356496 4356497#0 4356497#1 4356497#2 4356497#3 4356497#4 4356497#5 4356497#6 4356497#7 4356497#8 4356497#9 4356497#10 4356497#11 4356497#12 4356497#13 4356497#14 4356497#15 -4345746#1 -4345746#0 242612395#4 242612395#5 242612395#6 242612395#7 -4402055#1 -4402055#0 2482556#2 2482556#0 2482555#0 2482555#1 2482555#2 2482555#3 2482555#4 394223713 122052191 394479752 394479751 2482541 4940352#0 4940352#1 2482540 394479747 394223697#0 394223697#1 394223697#2 394223697#3 394223705 394479754 97888952 394223724 394223712 394479761#0 4390999 97888965#0 97888965#1 97888965#2 97888965#3 97888965#4 122051329#0 122051329#1 4391000#6 4391000#0 4491839#0 4491839#1 4390998#0 4390998#1 4408668 4408669 97890937 2482618#0 2482618#1 2482618#2 2482619#0 2482619#1 97890938#0 97890938#1 97890938#2 97890938#3 97890938#4 97890938#5 97890938#6 97890938#7 191351473#0 191351473#1 98014882 394223689#2 4324482"/>
    
    <route id="39" edges="-4550230#3 -4550230#2 -4550230#1 -4550230#0 -4550236#1 -4550236#0 -4435305#7 -4435305#6 -4435305#5 -4435305#4 -4435305#3 -4435305#2 -4435305#1 -4435305#0 4390099#0 4390099#1 4390099#2 -4401127#1 -4401127#0 -4401126 -4390091#9 -4390091#8 -4390091#7 -4390091#6 -4390091#5 -4390091#4 -4390091#3 -4390091#2 -4390091#1 -4390091#0 4324447#0 4324447#1 4324447#2 4324447#3 4324447#4 4324447#5 4324447#6 4324447#7 4324447#8 4324447#9 4324447#10 4324447#11 4324447#12 4324447#13 4324447#14 4324447#15 4324447#16 4324447#17 4324447#18 4324447#19 174538607 4319278#0 4319278#1 -4333566#4 -4333566#3 -4333566#2 -4333566#1 -4333566#0 -4319276#1 -4319276#0 394223694#0 394223694#1 394223694#2 394223729#0 394223729#1 394479750 394479741 4320289#0 44867561#0 -4384084#6 -4384084#5 -4384084#4 -4384084#3 -4384084#2 -4384084#1 -4384084#0 122052194#0 122052194#1 394223714#2 4940355 -394223713 -2482555#4 4347671#0 4347671#1 4320735#0 4320735#1"/>
    