<?xml version="1.0"?>
<!-- generated on 2017-03-21 13:46:53.822000 by $Id: randomTrips.py 22929 2017-02-13 14:38:39Z behrisch $
  options: -n net.net.xml -e 100
-->
<routes xmlns:xsi="http://www.w3.org/2001/XMLSchema-instance" xsi:noNamespaceSchemaLocation="http://sumo.dlr.de/xsd/routes_file.xsd">
    <trip id="0" depart="0.00" from="4520389#2" to="-392854418#2"/>
    <trip id="1" depart="1.00" from="-4488770#0" to="-4324447#16"/>
    <trip id="2" depart="2.00" from="4328575#2" to="-4329392#1"/>
    <trip id="3" depart="3.00" from="4435306#4" to="4358244#1"/>
    <trip id="4" depart="4.00" from="-4484814" to="-4388081#3"/>
    <trip id="5" depart="5.00" from="-4352662#6" to="-4432087#1"/>
    <trip id="6" depart="6.00" from="4324447#11" to="4345728#1"/>
    <trip id="7" depart="7.00" from="4358244#1" to="392854418#6"/>
    <trip id="8" depart="8.00" from="-4792403#1" to="-37620457#4"/>
    <trip id="9" depart="9.00" from="4329355#7" to="4349791#2"/>
    <trip id="10" depart="10.00" from="-4337468#4" to="6993842#0"/>
    <trip id="11" depart="11.00" from="4485017#1" to="394223718"/>
    <trip id="12" depart="12.00" from="-2482555#1" to="4587190#2"/>
    <trip id="13" depart="13.00" from="-4400546#0" to="394216677#6"/>
    <trip id="14" depart="14.00" from="-4587190#1" to="-4430846#0"/>
    <trip id="15" depart="15.00" from="394223703#1" to="4390998#0"/>
    <trip id="16" depart="16.00" from="-4623842#2" to="4334906#1"/>
    <trip id="17" depart="17.00" from="4851035#1" to="4356495#4"/>
    <trip id="18" depart="18.00" from="4402247#1" to="-4649414#0"/>
    <trip id="19" depart="19.00" from="4329388#0" to="392854418#3"/>
    <trip id="20" depart="20.00" from="-4356571#4" to="-4432087#2"/>
    <trip id="21" depart="21.00" from="-4356504#8" to="4356497#1"/>
    <trip id="22" depart="22.00" from="-4451708#1" to="18782871"/>
    <trip id="23" depart="23.00" from="4516950#1" to="394216675#2"/>
    <trip id="24" depart="24.00" from="-98014879#1" to="394223696"/>
    <trip id="25" depart="25.00" from="4329423#3" to="-18140190#4"/>
    <trip id="26" depart="26.00" from="4384077" to="373205900#4"/>
    <trip id="27" depart="27.00" from="-4451685#1" to="392854418#3"/>
    <trip id="28" depart="28.00" from="4358241" to="-4329443"/>
    <trip id="29" depart="29.00" from="4324448#1" to="197903819#0"/>
    <trip id="30" depart="30.00" from="394223715" to="4747366"/>
    <trip id="31" depart="31.00" from="4356495#8" to="-4342199#0"/>
    <trip id="32" depart="32.00" from="394216677#9" to="-174538605#7"/>
    <trip id="33" depart="33.00" from="394479761#2" to="4404938"/>
    <trip id="34" depart="34.00" from="120437583#3" to="4352657#3"/>
    <trip id="35" depart="35.00" from="-4329394#2" to="-6994555#0"/>
    <trip id="36" depart="36.00" from="4796425#2" to="4796415"/>
    <trip id="37" depart="37.00" from="4400540#6" to="-4792392"/>
    <trip id="38" depart="38.00" from="-4796416#2" to="4324482"/>
    <trip id="39" depart="39.00" from="-4550230#3" to="4320735#1"/>
    <trip id="40" depart="40.00" from="-4329343#1" to="-4407977#2"/>
    <trip id="41" depart="41.00" from="-4347949#2" to="-4368295#0"/>
    <trip id="42" depart="42.00" from="-4538820#0" to="-4639990#0"/>
    <trip id="43" depart="43.00" from="-4538778#2" to="115566942"/>
    <trip id="44" depart="44.00" from="-4378652#0" to="4488766#1"/>
    <trip id="45" depart="45.00" from="4430850#7" to="4488766#0"/>
    <trip id="46" depart="46.00" from="-4639994" to="4339925#1"/>
    <trip id="47" depart="47.00" from="-4555513#3" to="4587190#3"/>
    <trip id="48" depart="48.00" from="-174538605#4" to="4649415#0"/>
    <trip id="49" depart="49.00" from="-4488802" to="28687886#2"/>
    <trip id="50" depart="50.00" from="183313398#4" to="4451150#0"/>
    <trip id="51" depart="51.00" from="4320735#2" to="4398503#4"/>
    <trip id="52" depart="52.00" from="-4329397#2" to="4329355#2"/>
    <trip id="53" depart="53.00" from="4430858#1" to="4796422"/>
    <trip id="54" depart="54.00" from="4352662#4" to="-4451152#3"/>
    <trip id="55" depart="55.00" from="-4356570#8" to="394216678#9"/>
    <trip id="56" depart="56.00" from="4792575#0" to="4438556"/>
    <trip id="57" depart="57.00" from="-254830315#2" to="4797851#4"/>
    <trip id="58" depart="58.00" from="-4639990#2" to="-4334905#0"/>
    <trip id="59" depart="59.00" from="4329418#0" to="-207171852#1"/>
    <trip id="60" depart="60.00" from="-4451168#3" to="4329413#6"/>
    <trip id="61" depart="61.00" from="4358244#6" to="4538818#6"/>
    <trip id="62" depart="62.00" from="4404771" to="-174538609#0"/>
    <trip id="63" depart="63.00" from="-4592955#0" to="-97890938#7"/>
    <trip id="64" depart="64.00" from="4342358" to="4402055#0"/>
    <trip id="65" depart="65.00" from="4378254#4" to="-4347956#0"/>
    <trip id="66" depart="66.00" from="143412706" to="-394479754"/>
    <trip id="67" depart="67.00" from="4358245" to="-4796412"/>
    <trip id="68" depart="68.00" from="4604960#0" to="4329385#0"/>
    <trip id="69" depart="69.00" from="-4484845#1" to="4430844#3"/>
    <trip id="70" depart="70.00" from="-4320185#0" to="-459196082"/>
    <trip id="71" depart="71.00" from="4358230#3" to="4345746#1"/>
    <trip id="72" depart="72.00" from="-28687886#3" to="4368288#1"/>
    <trip id="73" depart="73.00" from="4352631#1" to="4639988#3"/>
    <trip id="74" depart="74.00" from="4753725#0" to="4797851#1"/>
    <trip id="75" depart="75.00" from="-370402788" to="4430860"/>
    <trip id="76" depart="76.00" from="4356571#3" to="-359247033#1"/>
    <trip id="77" depart="77.00" from="394479750" to="-4356571#2"/>
    <trip id="78" depart="78.00" from="-4520389#2" to="393234280#1"/>
    <trip id="79" depart="79.00" from="-4329358#2" to="4796419"/>
    <trip id="80" depart="80.00" from="-183313398#3" to="-4342847#0"/>
    <trip id="81" depart="81.00" from="4521247#2" to="242612411#4"/>
    <trip id="82" depart="82.00" from="-174538605#6" to="4345728#1"/>
    <trip id="83" depart="83.00" from="-4358237#1" to="-4390098#3"/>
    <trip id="84" depart="84.00" from="4384077" to="-459196087"/>
    <trip id="85" depart="85.00" from="37618947#0" to="-4796433#1"/>
    <trip id="86" depart="86.00" from="239567900" to="-394216674#3"/>
    <trip id="87" depart="87.00" from="207171852#2" to="18782869"/>
    <trip id="88" depart="88.00" from="394223715" to="4430848#0"/>
    <trip id="89" depart="89.00" from="-4352631#1" to="4520389#1"/>
    <trip id="90" depart="90.00" from="-4398503#5" to="-4387568#0"/>
    <trip id="91" depart="91.00" from="4355487" to="4358244#8"/>
    <trip id="92" depart="92.00" from="4485017#3" to="4386458#1"/>
    <trip id="93" depart="93.00" from="97890938#2" to="-4451681#1"/>
    <trip id="94" depart="94.00" from="-8140820#1" to="4484817#4"/>
    <trip id="95" depart="95.00" from="-4747376" to="-4438566#2"/>
    <trip id="96" depart="96.00" from="4538779" to="4604961"/>
    <trip id="97" depart="97.00" from="4451685#2" to="-4435305#8"/>
    <trip id="98" depart="98.00" from="4339690#0" to="4324480#1"/>
    <trip id="99" depart="99.00" from="398857940#0" to="4661255#2"/>
</routes>
